{{multiple issues|
{{untranslated-jargon|time=2014-04-10}}
{{fanpov|time=2014-04-09T00:51:00+00:00}}
{{inappropriate tone|time=2014-04-09T00:51:00+00:00}}
}}

{{Infobox VG
|title=灣岸Mid-Night Maximum Tune
|image= File:WANGAN MIDNIGHT MAXIMUM TUNE 4 20161010 195435.jpg
|caption= 中国版MT4
|developer=[[南夢宮萬代發展公司|NAMCO BANDAI]]
|publisher=
|distributor=
|designer=
|series=
|engine=
|released=[[File:Flag_of_Japan.svg|22px]] 2004年7月6日（MT）<br />[[File:Flag_of_Japan.svg|22px]] 2005年4月21日（MT2）<br />[[File:Flag_of_Japan.svg|22px]] 2007年7月18日（MT3）<br />[[File:Flag_of_Japan.svg|22px]] 2012年2月19日（MT4）<br />[[File:Flag_of_Japan.svg|22px]] 2014年3月12日（MT5）<br />[[File:Flag_of_Japan.svg|22px]] 2018年7月12日（MT6）
|genre=競速遊戲
|modes=1-4人
|platforms=[[街機|街機]]
|cabinet=
|arcade system=
|cpu=
|sound=
|display=
}}
'''灣岸Mid-Night Maximum Tune系列'''（湾岸ミッドナイトマキシマムチューン，簡稱WMMT、MT），是由[[日本|日本]][[Bandai|Bandai]] [[Namco|Namco]]公司所出品的[[街機|街機]]，由[[日本漫畫家|日本漫畫家]][[楠通春|楠通春]]所繪製的漫畫《[[灣岸競速|灣岸Midnight]]》改編，其內容描述主角朝倉明雄（Akio Asakura）駕駛著被[[東京|東京]][[灣岸線|灣岸線]]的賽車手們稱為「惡魔之Z」的[[日產Z系列|第一代日產Fairlady Z]]（代號S30）在[[灣岸線|灣岸線]]和[[東京|東京]][[首都高速道路系統|首都高速道路系統]]上行駛，所有的車手追尋著這輛Z所發生的故事。而在MT的世界裏玩家要扮演一位車手跟遊戲中所有的角色比賽以獲得勝利。本遊戲從2003年出品至今已有15年的歷史，其中經過MT1、MT2、MT3、MT3DX、MT3DX+、MT4、MT5 、MT5DX、MT5DX+、MT6及MT6R的時代。每代皆有不同的特色也有代代新添增許多遊戲樂趣的要素，讓玩家可以用跑車享受到飆速的快感。

==機台==
整個機台配有[[4.1聲道|4.1聲道]]的裝備，分別在[[螢幕|螢幕]]兩旁及坐椅上各設有兩個[[揚聲器|揚聲器]]、而椅下有一個Bass。新型H6排擋桿設計使得整體看起來更接近實車。

==灣岸Mid-Night和灣岸Mid-NightR==
在WMMT還沒問世時，[[Namco|Namco]]有出了另外2種機台，就是灣岸Mid-Night和灣岸Mid-NightR，灣岸Mid-Night在2001年問世<ref>{{Cite web |url=http://www.system16.com/hardware.php?id=543&gid=1394#1394 |title=存档副本 |accessdate=2018-03-08 |archive-date=2018-12-31 |archive-url=https://web.archive.org/web/20181231100557/http://www.system16.com/hardware.php?id=543&gid=1394#1394 |dead-url=no }}</ref>，灣岸Mid-NightR則是在2002年問世<ref>{{Cite web |url=http://www.system16.com/hardware.php?id=543&gid=1395#1395 |title=存档副本 |accessdate=2018-03-08 |archive-date=2019-01-05 |archive-url=https://web.archive.org/web/20190105110605/http://www.system16.com/hardware.php?id=543&gid=1395#1395 |dead-url=no }}</ref>，但當時灣岸Mid-Night和灣岸Mid-NightR的知名度卻不高，因此改為灣岸Mid-Night Maximum Tune。

==灣岸Mid-Night Maximum Tune==
本遊戲在2004年7月6日面世，搭配卡片記錄方式，玩家可以在卡片上記錄自己的車輛改裝以及劇情模式的進度，亦能提供兩人對戰，遊戲可分為「STORY MODE」（故事模式）、亂入對戰跟「TIME ATTACK」（[[真實時間競速攻略|時間競速]]）。
<ref>{{Cite web |url=http://bandainamcoent.co.jp/am/vg/wanganmaxi/about_product.php |title=存档副本 |accessdate=2018-03-08 |archive-date=2018-03-22 |archive-url=https://web.archive.org/web/20180322081727/http://bandainamcoent.co.jp/am/vg/wanganmaxi/about_product.php |dead-url=no }}</ref>
===MT賽道===
*C1（都心環狀高速線路）內圍
*C1外圍
*新環狀左迴
*新環狀右迴
*[[首都高速道路系統|首都高速道路系統]]一整圈
<ref>{{Cite web |url=http://bandainamcoent.co.jp/am/vg/wanganmaxi/about_course.php |title=存档副本 |accessdate=2018-03-08 |archive-date=2018-03-23 |archive-url=https://web.archive.org/web/20180323190524/http://bandainamcoent.co.jp/am/vg/wanganmaxi/about_course.php |dead-url=no }}</ref>

==灣岸Mid-Night Maximum Tune 2==
在2005年4月21日上市，同樣採用搭配卡片記錄方式。對戰人數最多增至四人。除原本的「STORY MODE」跟「TIME ATTACK」以外，還新增了「十人斬模式」。延長故事模式關卡至80話。<ref>{{Cite web |url=http://bandainamcoent.co.jp/am/vg/wanganmaxi2/about/ |title=存档副本 |accessdate=2018-03-08 |archive-date=2018-01-05 |archive-url=https://web.archive.org/web/20180105231019/http://bandainamcoent.co.jp/am/vg/wanganmaxi2/about/ |dead-url=no }}</ref>

===MT2故事模式（STORY MODE）===
*此模式就是依照漫畫內容與每個對手競速，可以在此模式內改裝愛車的性能，達成的週目數可以升級。
*1~20話：灣岸人物總匯集1（全數完成可得馬力600）
*21~40話：灣岸人物總匯集2（全數完成可得馬力800）
*41~50話：惡魔之Z的復活
*51~60話：R200CLUB
*61~70話：怪物機械
*71~80話：傳說中的FC（全數完成可得馬力810）

===MT2賽道===
*C1（[[首都高速道路都心環狀線|高速都心環狀線]]）內圍
*C1外圍
*新環狀左迴(包括[[首都高速道路11號台場線|台場線]] )
*新環狀右迴
*[[箱根|箱根]]二國觀光山道（新增）

===MT2車卡===
車卡每張可以用60次，超過需要檢卡（更新到新卡）。<ref>{{Cite web |url=http://bandainamcoent.co.jp/am/vg/wanganmaxi2/card/record.php |title=存档副本 |accessdate=2018-03-08 |archive-date=2018-03-08 |archive-url=https://web.archive.org/web/20180308165122/http://bandainamcoent.co.jp/am/vg/wanganmaxi2/card/record.php |dead-url=no }}</ref>
*Ver.A：在MT2的故事模式80話以內,必須不敗,才能拿到815馬力,意味著只要80話內輸了就跟815匹馬力無緣
*Ver.B：只要里程數超過5000公里,即可拿到815馬力,也就是說,在故事模式80話以內敗了也可拿到815馬力

===MT2廢車卡制度===
與上代不同，此版本可製成廢車卡，利用廢車卡可發行與卡檢車輛相同車種相同顏色之車身的600馬力車輛，快速邀請朋友加入遊戲。<ref>{{Cite web |url=http://bandainamcoent.co.jp/am/vg/wanganmaxi2/card/scrap.php |title=存档副本 |accessdate=2018-03-08 |archive-date=2018-03-08 |archive-url=https://web.archive.org/web/20180308165101/http://bandainamcoent.co.jp/am/vg/wanganmaxi2/card/scrap.php |dead-url=no }}</ref>
在對完成前20話故事的車卡進行卡檢時，原卡會自動變成廢車卡從讀卡器推出。使用時，在可以正常發行新卡的機器上，在“請插入卡片”（カードを入れて下さい）界面插入廢車卡，機器會詢問“是否製作600馬力車卡？”（600馬力カードを作成しますか？），投入正常購卡所需的硬幣數量即可製作新卡，命名後即可正常使用。新卡的故事模式前20話顯示為完成。
廢車卡每張可以使用兩次。

==灣岸Mid-Night Maximum Tune 3/3DX/3DX+==
除了保留MT2的車種與賽道之外，另外新追加車種、跑道與更改了對戰系統(岔路選擇與參戰玩家固定)；降低故事模式和十人斬模式難度，畫質上有所提昇，介面亦改善過來，另外增加車身塗裝、增加Ghost Car模式。車卡改為直式，並增設顯示行車里數。而卡片上的資料欄位不變。

===MT3遊戲模式===
*故事模式(STORY MODE)
:此模式就是依照漫畫內容與每個對手競速，可以在此模式內改裝愛車的性能，達成的週目數可以升級。
:1~10話：惡魔之Z的復活
:11~15話：完美的GTR
:16~20話：赤坂直線（20話前全數完成可得馬力600）
:21~30話：怪物機械
:31~40話：R200CLUB（40話前全數完成可得馬力800）
:41~50話：阪神高速環狀（完成後可得馬力810）
:51~60話：傳說中的FC（完成後可得馬力815）
:61~70話：ACE車庫
:71~80話：傳說中的F1渦輪（完成後可得馬力820）
:81~85話：石田篇（MT3DX，MT3DX+）
:86~90話：地上的零式戰鬥機（MT3DX，MT3DX+）
:91~100話：FD的主人（MT3DX，MT3DX+，完成後可得馬力825）
*計時賽系統(TIME ATTACK=TA)
:與時間競速，競速出最快者可以登入網路排行榜（IR）看看自己的成績。
*10人斬
:每條跑道都有10個等級的電腦人物，打的越快評等越高，最高為「瞬殺S」（Sudden Kill）而在一個跑道打下10個等級電腦，評等都為S時則車卡等級提升一級。再進入10人斬模式會多出一個等級，裡面有31個人物，即為31人斬。
*幽靈車對戰模式（Ghost Car Rival Mode）
:可以選擇幽靈車的等級，最高等級是玩家，每打贏一台幽靈車之後可以累積經驗值，當經驗值累積到一定程度後便會有幽靈車升級的畫面，而幽靈車等級每次提升都可以得到一個外觀改裝的物品，其中包含了全車空力套件、引擎蓋、尾翼、輪框、照後鏡、彩繪貼紙、車燈等超過百種組合。
:#好友模式，曾經與其他玩家對戰過加入好友，在幽靈車模式中選此，就會有幽靈車與他對戰紀錄中的路線一樣，不論是走的線位與失誤地方。
:#復仇模式，就是其他玩家用幽靈車模式來擊敗你的紀錄，再次插卡時上面就會出現有人打敗你的ID在上面。
:#等級模式，一般的電腦以及皇冠模式，可以挑戰最強的玩家紀錄。
:#尋找對手，打上車卡ID，便會顯示卡主曾經在該路線行走的紀錄，可以再次挑戰。
*多人對戰模式
:顧名思義即為與玩家們進行一場競速賽，而在玩家選擇跑道之後便可以選擇起點位置，而當競速時第一名的玩家可以選擇岔路的方向。
===灣岸隱藏車===
NISSAN：GT-R SpecV表示車種：GT-R（R35）輸入編號：1352 3533 555<br>
NISSAN：FAIRLADY (Z31)表示車種： FAIRLADYS30(惡魔之Z) 輸入編號： 643<br>
TOYOTA：COROLLA表示車種：SUPRA（JZA70）輸入編號：4126<br>
TOYOTA：HIACE表示車種：MR2（SW20）輸入編號：322 322 322<br>
TOYOTA：HIACE（高底盤）表示車種：CHASER（JZX100）輸入編號：3344 3344 262626<br>
TOYOTA：CELSIOR（計程車仕様）表示車種：CELSIOR（UCF10）輸入編號：1562 1562 1562<br>
TOYOTA：ARISTO（個タク仕様）表示車種：ARISTO（JZS161）輸入編號：111 222< 3333333 444 555 6666666<br>
TOYOTA：CELSIOR UCF10 表示車種： CHASER 輸入編號：643<br>
SUBARU：R2 表示車種：Alcyone SVX(CXD) 輸入編號：64 64 64 64 64<br>
Mazda ：MAZDASPEED6 MPS（教練車式樣）表示車種：MAZDASPEED 6（GG3P）輸入編號：6654 333 1123 444

Mitsubishi：PAJEROEVOLUTION 表示車種：（Lancer Evolution四驅車版）表示車種：STARIONGSR-VR 輸入編號：4636554636

===MT3賽道新增===
* K1 [[首都高速道路神奈川1號橫羽線|高速神奈川1號橫羽線]] （Yokohane Line）。
* B [[首都高速道路灣岸線|高速灣岸線]] （Wangan Line）。
* [[阪神高速1號環狀線|阪神高速1號環狀線]]（Osaka Line）。
*MT3保留了箱根二國觀光山道（Hakone），並把此賽道增長。

===MT3DX賽道新增===
* [[名古屋高速都心環狀線|名古屋高速都心環狀線]] （Nagoya Speed Ring)。

===MT3DX+賽道新增===
* 福岡都市高速(Fukuoka Expressway)

===MT3車卡繼承===

*可繼承的卡片種類
*:MT2車卡
*無法繼承卡片種類
*:MT車卡
*:MT2測試版車卡
*:MT2作廢車卡
*:使用過的車卡
*繼承內容
*:玩家名稱
*:車種
*:手/自排
*:亂入對戰的戰績
*:里程數
*:車身顏色(某些車種例外)

*無法繼承的內容
*:稱號 (由「灣岸的新人」(日版) / "Wangan Beginner"(海外版)開始)
*:計時模式紀錄更新
*:對戰風格
*:10人斬的進度模式
*:故事模式由2周目開始
*故事模式進度
*:20話（或以下）：馬力照舊
*:40話：最大馬力800
*:50話：最大馬力810
*:60話：最大馬力815
*:80話：最大馬力820
*:100話：最大馬力825 （MT3DX）
*MT2無敗空心卡在MT3卡獎勵
*:特殊的轉速表與速度表還有超轉燈 (Racing Meter)
*:增加灣岸Mid-Night R Track
*MT3DX無敗空心卡獎勵
*:增加灣岸Mid-Night R Track （如果在MT2或MT3败过，但在MT3DX无败就会拿到）
*:特殊的轉速表與速度表還有超轉燈 (Special Meter)
*車檢到時，機台製作完廢車卡，機台會給予車輛新的顏色，所以顏色也可以藉由車檢更換。
*車檢到時，機台製作完廢車卡，會退出原車卡作為贈禮卡（present card），可以使用五次現行馬力車輛，官方說法為"與朋友分享你的車輛"

==灣岸Mid-Night Maximum Tune 4==
除了保留MT3DX+的車種與賽道之外，另外新追加車種、跑道與更改了對戰系統(岔路選擇與參戰玩家固定)；故事模式刪掉原本的61~100話,畫質上有所提昇，介面亦改善過來，另外增加車身塗裝、删除10人斩模式和GEMBALLA车种。新一代的车卡可储存最多一百张MT3DX+卡，而且这些卡会变成'用户"。因此，玩家可以无限制地与其他玩家分享车卡。

===MT4遊戲模式===
*故事模式(STORY MODE)
:此模式就是依照漫畫內容與每個對手競速，可以在此模式內改裝愛車的性能，達成的週目數可以升級。
:1~10話：惡魔之Z的復活
:11~15話：完美的GTR
:16~20話：赤坂直線（前20話全數過關可得馬力600）
:21~30話：怪物機械
:31~40話：R200CLUB
:41~50話：阪神高速環狀（前50話過關可得馬力800）
:51~60話：傳說中的FC（54話過關後可得馬力815，59話過關則得馬力830）
*計時賽系統(TIME ATTACK=TA)
:與時間競速，競速出最快者自动登入網路排行榜（IR）看看自己的成績。
*全球化身對戰模式（Online Ghost Battle Mode）
:''在中国版（CHN）中，本模式为'''全国化身对战模式'''''<ref>{{cite web |title=在线化身对战模式｜WANGAN MIDNIGHT MAXIMUM TUNE 4 |url=https://wanganmaxi-official.com//wanganmaxi4/cn/system/bunshin/index.php |website=WANGAN MIDNIGHT MAXIMUM TUNE 4 中国官网 |accessdate=2021-07-03 |archive-date=2021-07-09 |archive-url=https://web.archive.org/web/20210709182403/https://wanganmaxi-official.com//wanganmaxi4/cn/system/bunshin/index.php |dead-url=no }}</ref>
:可以選擇化身的等級，最高等級是玩家，每打贏一个化身之後可以累積經驗值，當經驗值累積到一定程度後便會有化身等级升級的畫面，而化身等級每次提升都可以得到一個外觀改裝的物品，其中包含了全車空力套件、引擎蓋、尾翼、輪框、照後鏡、彩繪貼紙、車燈等超過百種組合。
:#好友模式，曾經與其他玩家對戰過加入好友，在化身模式中選此，就會有化身與他對戰紀錄中的路線一樣，不論是走的線位與失誤地方。
:#復仇模式，就是其他玩家用化身模式來擊敗你的紀錄，再次插卡時上面就會出現有人打敗你的ID在上面。
:#等級模式，一般的電腦以及皇冠模式，可以挑戰最強的玩家紀錄。
:#尋找對手，打上車卡ID，便會顯示卡主曾經在該路線行走的紀錄，可以再次挑戰。
*多人對戰模式
:顧名思義即為與玩家們進行一場競速賽，而在玩家選擇跑道之後便會隨機抽出起點位置，而當競速時第一名的玩家可以選擇岔路的方向。
* 挑战日本化身（Japan mode）
:可以挑戰日本玩家，將會分成10個地區，50關。
:#北海道（1關）：北海道
:#東北地區（6關）：青森、岩手、宮城、秋田、山形、福島
:#北關東地區（4關）：茨城、櫪木、群馬、埼玉
:#南關東地區（6關）：千葉、東京1、東京2、東京3、神奈川1、神奈川2
:#北陸地區（4關）：新潟、富山、石川、福井
:#東海地區（6關）：山梨、長野、岐阜、靜岡、愛知、三重
:#關西（6關）：滋賀、京都、大阪、兵庫、奈良、和歌山
:#中國（5關）：鳥取、島根、岡山、廣島、山口
:#四國（4關）：德島、香川、愛媛、高知
:#九州沖繩（8關）：福岡、佐賀、長崎、熊本、大分、宮崎、鹿兒島、沖繩

===MT4賽道（截至 v1.07）===
::{| class="wikitable" style="text-align:center"
|+ 
! 區域 !! 路線名稱 !! 起始出入口／地點
|-
| rowspan=4 | [[File:Shuto_Urban_Expwy_Sign_C1.svg|30px]] C1
| rowspan=2 | C1內圍 || [[汐留出入口|汐留出入口]]
|-
| rowspan=2 | [[神田橋出入口|神田橋出入口]]
|-
| rowspan=2 | C1外圍
|-
| [[芝公園出入口|芝公園出入口]]
|-
| rowspan=3 | [[File:Shuto_Urban_Expwy_Sign_Y.svg|30px]] 八重洲線
| 八重洲線内圍 || [[汐留JCT|汐留交流道]]
|-
| rowspan=2 | 八重洲線外圍 || [[神田橋JCT|神田橋交流道]]
|-
| [[京橋JCT|京橋交流道]]
|-
| rowspan=2 |[[File:Shuto_Urban_Expwy_Sign_6-Mukojima.svg|30px]][[File:Shuto_Urban_Expwy_Sign_0009.svg|30px]][[File:Shuto_Urban_Expwy_Sign_B.svg|30px]][[File:Shuto_Urban_Expwy_Sign_1-Haneda.svg|30px]][[File:Shuto_Urban_Expwy_Sign_0011.svg|30px]][[File:Shuto_Urban_Expwy_Sign_C1.svg|30px]] 新環状
| 新環狀左迴 
| [[有明出入口|有明出入口]]
|-
| 新環狀右迴
| [[木場出入口|木場出入口]]
|-
| rowspan=4 | [[File:Shuto_Urban_Expwy_Sign_B.svg|30px]] 灣岸線
| rowspan=2 | 湾岸線東行 || [[大黑埠頭出入口|大黑埠頭出入口]]
|-
| rowspan=2 | [[機場中央出入口|機場中央出入口]]
|-
| rowspan=2 | 湾岸線西行 
|-
| [[臨海副都心出入口|臨海副都心出入口]]
|-
| rowspan=4 | [[File:Shuto_Urban_Expwy_Sign_1-Haneda.svg|30px]] [[File:Shuto_Urban_Expwy_Sign_K1.svg|30px]] 横羽線
| rowspan=2 | 横羽線上行 || [[汐入出入口|汐入出入口]]
|-
| rowspan=2 | [[羽田出入口|羽田出入口]]
|-
| rowspan=2 | 横羽線下行
|-
| [[芝浦出入口|芝浦出入口]]
|-
| rowspan=4 | [[File:Shuto_Urban_Expwy_Sign_K1.svg|30px]][[File:Shuto_Urban_Expwy_Sign_K3.svg|30px]][[File:Shuto_Urban_Expwy_Sign_B.svg|30px]][[File:Shuto_Urban_Expwy_Sign_K5.svg|30px]] 横濱
| rowspan=2 | 港未來内圍 || [[新山下出入口|新山下出入口]]
|-
| rowspan=2 | [[港未來出入口|港未來出入口]]
|-
| rowspan=2 | 港未來外圍 
|-
| [[東神奈川出入口|東神奈川出入口]]
|-
| [[File:Nagoya_Urban_Expwy_Sign_R.svg|30px]] 名古屋 || 名古屋高速環狀 || [[丸之內出口_(愛知縣)|丸之內出口]]
|-
| [[File:Hanshin_Urban_Expwy_Sign_0001.svg|30px]][[File:Hanshin_Urban_Expwy_Sign_0013.svg|30px]][[File:Hanshin_Urban_Expwy_Sign_0015.svg|45px]] 大阪 || 阪神高速環状 || [[道頓堀出口|道頓堀出口]]
|-
| rowspan=4 | [[File:Fukuoka_Urban_Expwy_Sign_C.svg|30px]] 福岡
| rowspan=2 | 福岡都市高速（西行） || [[姪濱出入口|姪濱出入口]]
|-
| [[博多站東出入口|博多站東出入口]]
|-
| rowspan=2 | 福岡都市高速（東行） || [[西公園出入口|西公園出入口]]
|-
| [[半道橋出入口|半道橋出入口]]
|-
| rowspan=2 | 箱根 
| rowspan=2 | 箱根
| 往路
|-
| 復路
|-

|}

===MT4車卡繼承===
*可繼承的卡片種類
*:MT3DX+車卡 (日本时间2013年10月24日1:00AM将会无法繼承，海外机和日本机,以防複製卡)
*無法繼承卡片種類
*:MT3DX或之前的車卡
*:MT3DX+測試版車卡
*:MT3DX+作廢車卡
*:使用過的車卡
*繼承內容
*:車種
*:手/自排
*:亂入對戰的戰績
*:里程數
*:車身顏色(某些車種例外)
*:空力套件與輪框(某些例外)
*:車子等級
*無法繼承的內容
*:玩家名稱(名稱由玩家决定)
*:稱號 (由「灣岸的新人」(日版) / "Wangan Beginner"(海外版)開始)
*:計時模式紀錄更新
*:對戰風格
*:10人斬的進度模式
*:故事模式(由馬力進度决定)
*故事模式進度
*:20話（或以下）:最大馬力600
*:54話：最大馬力800
*:59話：最大馬力830
*MT3DX+無敗用户在MT4卡獎勵
*:特殊的轉速表與速度表還有超轉燈 (Racing Meter)
*:增加灣岸Mid-Night R Track
*MT4無敗用户獎勵
*:特殊的轉速表與速度表還有超轉燈 (Racing Meter)
:MT4新增隱藏車 
Mitsubishi：PAJEROEVOLUTION 表示車種：（Lancer Evolution四驅車版）表示車種：STARIONGSR-VR 輸入編號：4636554636

==灣岸Mid-Night Maximum Tune 5/5DX/5DX+==
=== MT5賽道新增 ===

* 箱根大觀山(Hakone Mt.Taikan)

=== MT5乱入对战新增 ===

*颠倒模式(Extreme mode)
玩家走的道路是相反的，对手离你的距离、标志和剩下离终点的距离會遮蔽。（剩下5公里、3公里和第一名玩家离终点几百米的提醒会出现）这模式在MT5DX被移除。

*奖牌(VS Grade)和力量光环(Strength Aura)
奖牌是乱入对战新增的物品，有金,银,铜和VS奖牌。收集奖牌到一定的程度，玩家就可以拿到力量光环。力量光环是玩家乱入对战开始前玩家车辆背景出现动物力量光环。

{| class="wikitable" | width=100%
!width=10%|排名!!width=30%|4个玩家!!width=30%|3个玩家!!width=30%|2个玩家
|-
|第一名||金奖牌||银奖牌||铜奖牌
|-
|第二名||银奖牌||铜奖牌||VS奖牌
|-
|第三名||铜奖牌||VS奖牌||无
|-
|第四名||VS奖牌||无||无
|-
|}

=== MT5DX遊戲模式新增 ===

* Maxi幣系統可以得到用作購買一個外觀改裝的物品，其中包含了全車空力套件、引擎蓋、尾翼、輪框、照後鏡、彩繪貼紙、車燈等超過百種組合。
*邮票，玩家第一次玩先获得驾驶盘邮票，收集到邮票就会放到邮票收集处，当玩家的邮票到宝箱图就可以拿到新邮票。玩家可以使用湾岸终点站(Wangan terminal)选择喜欢的邮票与对手对决。

=== MT5DX賽道新增 ===
* [[阪神高速3號神戶線|臨港道路3號]](Kobe Area 'Hanshin Expressway R3 / Harbor road)
* [[首都高速3號澀谷線|3號渋谷線]](Sub-center Area 'Shibuya / Shinjuku Line)
* [[首都高速5號池袋線|5號池袋線]](Ikebukuro Line Yamate Tunnel)
另外，MT5DX添加了三道颠倒的道路：
*颠倒C1内围和外围（但不能去八重洲線,新环状左回和右回）
*颠倒阪神高速公路1号环状
*颠倒箱根二国观光山道
（注：这和MT5的差别是对手离你的距离、标志和剩下离终点的距离玩家可以知道）

=== MT5DX新增車種 ===
* [[宝马Z4|寶馬Z4]](E89)
* [[雪佛兰科尔维特|雪佛蘭Corvette]](C2)
* [https://en.wikipedia.org/wiki/Mercedes-Benz_SLK-Class_(R172) Benz SLK] {{Wayback|url=https://en.wikipedia.org/wiki/Mercedes-Benz_SLK-Class_(R172) |date=20160927205815 }}(R172)
* [[日產Skyline|日產Skyline RS-X]](R30)
* [[保時捷|保時捷]]Rt35
* [[保時捷|保時捷]]RCT
* [[速霸陸Levorg|速霸陸Levorg EyeSight]](VMG)
* [[速霸陸Impreza|速霸陸WRX STI]](GVB)
* [[BMW_M3|寶馬M3]](E92)
* [[馬自達RX-3|馬自達RX-3]](S124A)

=== MT5DX+赛道新增 ===
*[[广岛高速道路|广岛高速道路]](Hiroshima Area'Shinonome Ramp/Ujina Ramp)

=== MT5DX+新增车辆 ===
*[[本田NSX|本田NSX]] 第一代(NA1)
*[[本田NSX|本田NSX]] 第二代(NC1)
*[[蘭博基尼Aventador|蘭博基尼Aventador]](LP700-4)
*[[蘭博基尼Countach|蘭博基尼Countach]](LP400)

=== 全球化身對戰模式（Online Ghost Battle Mode） ===
''在中国版（CHN）中，本模式为'''全国化身对战模式'''''<ref>{{cite web |title=全国化身对战模式｜游戏模式｜WANGAN MIDNIGHT MAXIMUM TUNE 5DX PLUS |url=https://wanganmaxi-official.com//wanganmaxi5dxplus/cn/system/avatar/ |website=WANGAN MIDNIGHT MAXIMUM TUNE 5DX PLUS 中国官网 |accessdate=2021-07-03 |archive-date=2021-07-09 |archive-url=https://web.archive.org/web/20210709182131/https://wanganmaxi-official.com//wanganmaxi5dxplus/cn/system/avatar/ |dead-url=no }}</ref>
:可以選擇化身的等級，最高等級是玩家，每打贏一个化身之後可以获得Maxi G和累積經驗值，當經驗值累積到一定程度後便會有商店升級的畫面，而商店等級每次提升都可以解锁一批商店内可购买的外觀改裝的物品（每个等级包含一个免费赠品），其中包含了全車空力套件、引擎蓋、尾翼、輪框、照後鏡、彩繪貼紙、車燈等超過百種組合。
:#选择等級，可以选择360hp至830hp的等级对手，电脑化身(Super Hard) 和皇冠模式，以挑戰最強的玩家紀錄。
:#復仇模式，就是其他玩家用化身模式來擊敗你的紀錄，再次插卡時上面就會出現有人打敗你的ID在上面。
:#尋找對手，打上車卡ID，便會顯示卡主曾經在該路線行走的紀錄，可以再次挑戰。
:#挑战日本化身（Japan mode）
:可以挑戰日本玩家，將會分成10個地區，50關。
:可以获得各种车牌灯,彩繪貼紙和新邮票。
*北海道（1關）：北海道
*東北地區（6關）：青森、岩手、宮城、秋田、山形、福島
*北關東地區（4關）：茨城、櫪木、群馬、埼玉
*南關東地區（6關）：千葉、東京1、東京2、東京3、神奈川1、神奈川2
*北陸地區（4關）：新潟、富山、石川、福井
*東海地區（6關）：山梨、長野、岐阜、靜岡、愛知、三重
*關西（6關）：滋賀、京都、大阪、兵庫、奈良、和歌山
*中國（5關）：鳥取、島根、岡山、廣島、山口
*四國（4關）：德島、香川、愛媛、高知
*九州沖繩（8關）：福岡、佐賀、長崎、熊本、大分、宮崎、鹿兒島、沖繩

==湾岸Mid-Night Maximum Tune 6==
除了保留MT5DX+的赛道之外,湾岸Mid-Night Maximum Tune 6是首次沒有新增賽道，新一代的车卡可储存两百辆的MT6卡。移除了RUF换成保时捷。全新车辆等级从SSSS级至SSSSS级。故事模式重新增加至100话,更改有些关卡道路和对手车辆,马力从830提高至840。化身模式也可以多人对战(1vs1/1vs2/1vs3)。官方在这一代制作了湾岸应用程序代替网站版,让玩家方便查看资料和活动。
===MT6遊戲模式===
*故事模式(STORY MODE)
:此模式就是依照漫畫內容與每個對手競速，可以在此模式內提升马力。前54话的关卡挑战失败可得到一半胜利经验值
{| class="wikitable" | width=100%
!width=10%|集数!!width=40%|名称!!width=50%|備註
|-
|1~10話||惡魔之Z的復活|| 
|-
|11~15||完美的GTR|| 
|-
|16~20話||赤坂直線||前20话全数过关可得马力600
|-
|21~30話||怪物機械|| 
|-
:
|31~40話||R200CLUB|| 
|-
|41~50話||阪神高速環狀||前50话全数过关可得马力800
|-
|51~60話||傳說中的FC||前54话全数过关可得815马力，全数过关至59话可得830马力
|-
|61~70話||ACE車庫||全数过关可得835马力
|-
|71~80話||傳說中的F1渦輪||全数过关可得840马力
|-
|81~90話||地上的零式戰鬥機||
|-
|91~100話||FD的主人||
|-
|}

*全球化身对战模式（Online Ghost Battle Mode）	
这一代玩家可以挑战1至3台化身(除了皇冠模式)，甚至这些化身会阻挡玩家!每打赢化身之后可以获得累积经验值，当经验值累积到一定程度后便会有化身升级的画面，而化身等级每次提升都可以得到一个外观改装的物品，其中包含了全车空力套件、引擎盖、尾翼、轮框、照后镜、车灯等超过百种组合。

:#选择等级，可以选择360hp至840hp的等级对手，困难化身(Super Hard)和皇冠模式，以挑战最强的玩家纪录。
:#复仇模式，就是其他玩家用化身模式来击败你的纪录，再次插卡时上面就会出现有人打败你的ID在上面，比赛结束后玩家会收集对方邮票，同时玩家邮票会发送给对方。
:#寻找对手，打上车卡ID，便会显卡主曾经在该路线行走的纪录，可以再次挑战。

=== MT6新增车辆 ===
*[[保时捷_911|保时捷 911]] Turbo S(930)
*保时捷 911 Turbo 3.6(964)
*保时捷 911 Turbo S(991)
*[[保时捷718|保时捷718]] Cayman S
*保时捷 928 GT (后期)
*[[马自达|马自达]][[馬自達MX-5|Roadster RF RS]](ND5RC)(在5DX+累计至500G可获得)
*[[日产|日产]][[日产Z系列|Fairlady Z]]280Z-T(S130)(在5DX+累计至100000G可获得)
*[[日产|日产]]Leopard 3.0 Ultima(F31)(在5DX+累计至500000G可获得)

=== MT6新增和更改内容 ===
*移除MT5DX的繼續遊戲後重選模式功能，對戰設定將持續至遊戲結束或是在比賽中按[亂入對戰]進行調整為止
**如果要切換遊戲模式(例如：[Story Mode]<->[Time Attack])，僅能透過店內對戰獲勝才能進行調整(但仍維持在[Accept VS]狀態)
*新增车底灯的造型(如弯曲)。
*新增小地图和各式ID尖头(国际版)。
*移除团队，但团队贴纸可以自定义。
*移除彩绘贴纸。
*新增和更改一些全車空力套件的造型。
*更改一些车辆调挡时排烟管发出的音效。
*废车卡和自定义颜色(车漆):
**玩家可以使用自己的废车卡得到600马力汽辆。
**得到废车卡和车漆的游玩次数从每60次增加至每100次。

*BGM和特殊的转速表/速度表还有超转灯 (Racing Meter):
**得到BGM的游玩故事模式从每60话增加至每100话。
**故事模式的无败次数从每60次增加至每100次才能得到特殊的转速表，不管哪一话到达100次无败就可以获得。（滿馬力隱藏車只要100次無敗亦可獲得）

===MT6车卡继承===
*继承内容
*:名称/车种/车身颜色(某些车型除外)
*:行走距离
*:乱入对战的战绩(击落星数和奖牌数)
*:力量光环
*:车子等级(SSSS等级为SSSS 9级)
*:调整(以STEP为显示马力的车辆将改成马力/HP显示。)
*:废车卡(拥有或未使用的数量)
*:各种设定
*:邮票
*无法继承的内容
*:拥有Maxi G/店铺等级(将交换相当于总收购Maxi G的项目)(在6代移除)
*:装扮零件/装扮状态(车辆会变回原本的模样)
*:化身击败奖杯(在6代重置，并换新风格)
*:自定义框架(玩家ID的框架)(Custom Frame)
*WMMT5/5DX/5DX+的BGM(玩家需要在6代完成故事即可获得)
*RUF车辆:
**CTR在六代换成911 Turbo S(930)
**RGT和Rt35在六代换成911 Turbo S(991)
**RCT在六代换成911 Turbo 3.6(964)
*MT5DX+ Maxi-G在MT6卡奖励
**累积至500G可获得[[马自达|马自达]][[馬自達MX-5|Roadster RF RS]](ND5RC)
**累积至100000G可获得[[日产|日产]][[日产Z系列|Fairlady Z]]280Z-T(S130)
**累积至200000G可获得满马力票，此票的用处是玩家可以开新满马力(840HP)的车。
**累积至500000G可获得[[日产|日产]]Leopard 3.0 Ultima(F31)

===湾岸终端机===
新增终端机抽奖(Terminal Scratch-off)，一页有50个可刮处，可获得各种ID箭头，团队贴纸的风格和满马力的隐藏车辆，但只能1天抽1次。
*:車種
*:R2 (RC2)
*:COROLLA SEDAN G (NZE121)
*:HIACE VAN (H200)
*:PAJERO EVOLUTION (V55W)
*:GT-R (R35) NISMO ※黒色
*:FAIRLADY Z NISMO (Z34) ※黒色
*:ARISTO V300 VERTEX EDITION (JZS161)※個人計程車仕様
*:MAZDASPEED Atenza (GG3P)※駕駛班仕様
*:CELSIOR (UCF10)※個人計程車仕様
*:HIACE WAGON 高底盤式樣 (KZH100G)
*:GT-R PureEdition(R35)※MY2017
*:NSX-R (NA2)

==湾岸Mid-Night Maximum Tune 6R/6RR==
湾岸Mid-Night Maximum Tune 6R/6RR 是首次用“R”的湾岸Mid-Night Maximum Tune 6 加强版(以往是用DX/DX+）。湾岸Mid-Night Maximum Tune 6R 在日本2020年1月21日發佈，而海外版可能因[[2019冠狀病毒疫情|2019冠狀病毒疫情]]影響因此沒發佈，此版本首次沒有新增BGM。2021年10月6日，官方在Twitter發表加强版湾岸Mid-Night Maximum Tune 6RR預告網站，預計在2021年冬季發佈,海外版湾岸Mid-Night Maximum Tune 6 會直接升至湾岸Mid-Night Maximum Tune 6RR，并且會增加日本版湾岸Mid-Night Maximum Tune 6R内容。
===遊戲模式新增===
*全球鬼車對戰模式
;全球街頭挑戰(MT6R 日本版）
:這與挑戰日本化身相似
;賓果挑戰(Bingo Challenges)（MT6RR)
:相似MT5DX+的Rival Name Bingo限時活動,有25個數字，打敗對手可以獲得數字，每集滿一條綫可獲得每日標題，車牌和框架風格。這模式可以和其他玩家一起完成。

===新增车辆===
*MT6R(日本版）
#日產 Skyline 2000GT-R (KPGC110)
#日產 Silvia K's Aero (S14)
##注：日產 Skyline 2000GT-R (KPGC110)和日產 Silvia K's Aero (S14)在MT6R發佈前官方舉辦活動讓玩家投票選擇。
#豐田 GR Supra RZ (DB42) （限活動取得）
*MT6RR
#日產 GT-R50 by Italdesign，是游戲首輛可改裝外觀的GT-R系列。
#日產 Skyline 2000GT-R (KPGC110)（海外版）
#日產 Silvia K's Aero (S14)（海外版）

===新增和更改内容===
*MT6R日本版
#化鬼擊敗獎杯（MT5DX+的風格）重新加入。
#在MT6移除的空力套件重新加入
*MT6RR
#新車輛等級（SSSSS9至SSSSSS)
#新動物光環等級
#新WORK輪框

==車種==
===现有的车辆===
{| class="wikitable" | width=100%
!width=20%|車種名稱!!width=10%|車型代號!!width=10%|驅動型式!!width=60%|備註
|-
!colspan=4|[[Audi|Audi]]
|-
|R8 Coupe 5.2 FSI quattro||ABA42||6速-4WD||MT5新增 (國際版),MT5DX新增(日本版),MT5DX(國際版)起可改裝車輛外型
|-
|RS4 Avant||B8||7速-4WD||MT5新增(國際版),MT5DX新增(日本版),MT5DX(國際版)起可改裝車輛外型
|-
!colspan=4|[[寶馬|BMW]]
|-
|M1 ||E26||5速-MR||MT5新增(國際版),MT5DX新增(日本版),MT5DX(國際版)起可改裝車輛外型
|-
|M3 CSL ||E46||6速-FR||MT5新增(國際版),MT5DX新增(日本版),MT5DX(國際版)起可改裝車輛外型
|-
|M3 Coupe||E92||6速-FR||MT5新增(日本版),MT5DX新增(國際版)
|-
|Z4 sDrive35is||E89||7速-FR||MT5新增 (日本版),MT5DX新增(國際版)
|-
|M6 Gran Coupe||F06||7速-FR||MT5新增(日本版),MT5DX新增(國際版)
|-
|2002 Turbo||E20||5速-FR||MT5新增 (日本版),MT5DX新增(國際版)
|-
!colspan=4|[[雪佛兰|Chevrolet]]
|-
|Corvette Sting Ray||C2||4速-FR||MT4新增
|-
|Corvette Stingray||C3||4速-FR||MT4新增
|-
|Corvette ZR1||C6||6速-FR||MT4新增
|-
|Camaro SS RS||　||6速-FR||MT4新增
|-
|Camaro||Z28||4速-FR||MT5新增(日本版)
|-
!colspan=4|[[道奇|Dodge]]
|-
|Viper||SRT-10||6速-FR||MT5新增 (國際版),MT5DX新增(日本版),MT5DX(國際版)起可改裝車輛外型
|-
|Charger||SRT8||5速-FR||MT5新增(國際版),MT5DX新增(日本版),MT5DX(國際版)起可改裝車輛外型
|-
!colspan=4|[[本田技研工業|Honda]]
|-
|NSX||NC1||9速-4WD||MT5DX+新增,不能改装此车辆
|-
|NSX||NA1||5速-MR||MT5DX+新增
|-
|S2000 TypeS||AP2||6速-FR||2018全國大賽參加獎
|-
!colspan=4|[[藍寶堅尼|Lamborghini]]
|-
|Aventador||LP700-4||7速-4WD||MT5DX+新增
|-
|Countach||LP400||5速-MR||MT5DX+新增
|-
!colspan=4|[[馬自達|Mazda]]
|-
|RX-8 Type-S||SE3P||6速-FR||MT2新增
|-
|RX-7 Type-R||FD3S||5速-FR||選黃色變Type R BATHURST R
|-
|RX-7 GT-X||FC3S||5速-FR||日本版是Savanna RX-7 GT-X
|-
|RX-7 TURBO SE-Limited||SA22C||5速-FR||MT4新增
|-
|RX-3||S124A||5速-FR||MT5新增(日本版),MT5DX新增(國際版)
|-
|Eunos Cosmo Type-S||JCESE||4速-FR||MT2新增
|-
|110S||L10B||5速-FR||MT4新增
|-
|MAZDA6 MPS||GG3P||6速-4WD||MT3新增，MT3DX增加隱藏特殊色
|-
|MX-5||NCEC||6速-FR||MT3DX新增
|-
|MX-5||NA6CE||5速-FR||MT5新增(日本版)
|-
|Roadster RF RS||ND5R||5速-FR||MT5DX+累计至500G就可在MT6获得
|-
!colspan=4|[[賓士|Mercedes-Benz]]
|-
|SLS AMG GT||C197||7速-FR||MT5新增(國際版),MT5DX新增(日本版),MT5DX(國際版)起可改裝車輛外型
|-
|SLK350 BlueEFFICIENCY||R172||6速-FR||MT5新增(日本版),MT5DX新增(國際版)
|-
|500E||W124||4速-FR||MT5新增(日本版)
|-
|190E 2.5-16 EVO2||W201||5速-FR||MT5新增(海外版),MT5DX新增(日本版),MT5DX(國際版)起可改裝車輛外型
|-
!colspan=4|[[三菱汽車工業有限公司|Mitsubishi]]
|-
|Galant VR-4||E39A||5速-4WD||MT5新增(日本版),MT5DX新增(國際版)
|-
|Lancer Evolution X GSR||CZ4A||5速-4WD||MT3DX新增
|-
|Lancer Evolution IX MR GSR||CT9A||6速-4WD||MT3新增
|-
|Lancer Evolution VIII MR GSR||CT9A||6速-4WD||選擇白色變RS版
|-
|Lancer Evolution VI GSR||CP9A||5速-4WD||選擇白色變RS版
|-
|Lancer Evolution V GSR||CP9A||5速-4WD||MT3新增 選擇白色變RS版
|-
|Lancer Evolution III GSR||CE9A||5速-4WD||MT2新增 選擇白色變RS版
|-
|STARION GSR-VR||A187A||5速-FR||MT4新增
|-
|GTO Twin Turbo||Z16A||6速-4WD||
|-
!colspan=4|[[日產汽車|Nissan]]
|-
|GT-R||R35||6速-4WD||MT3DX+新增，不能改裝車輛外型
|-
|Skyline GT-R V-spec II||BNR34||6速-4WD||顏色選香檳金變V-spec II Nür
|-
|Skyline GT-R V-spec||BCNR33||5速-4WD||
|-
|Skyline GT-R||BNR32||5速-4WD||
|-
|Skyline GT-R||KPGC10||5速-FR||MT3DX+新增
|-
|Silvia Spec-R||S15||6速-FR||
|-
|180SX TYPE-III||RPS13||5速-FR||MT3新增
|-
|Fairlady Z Version ST||Z34||6速-FR||MT3DX新增
|-
|Fairlady Z Version S||Z33||6速-FR||
|-
|Fairlady Z 300ZX||Z32||5速-FR||MT2新增
|-
|Fairlady Z 300ZX||Z31||5速-FR||隱藏車輛(由MT3開始可直接選取)
|-
|Fairlady Z 280Z-T||S130||5速-FR||MT5DX+累计至100000G就可在MT6获得
|-
|Fairlady Z||S30||5速-FR||游戏中"恶魔之Z"使用的车辆
|-
|STAGEA Autech Version 260RS||WGNC34||5速-4WD||MT5新增 (日本版)
|-
|Skyline Coupe 370GT Type S||CKV36||6速-FR||MT4新增
|-
|Skyline RS-X||R30||5速-FR||MT5新增 (日本版),MT5DX新增(國際版)
|-
|FUGA 370GT Type S||KY51||7速-FR||MT4新增
|-
|Gloria GranTurismo ULTIMA||Y33||4速-FR||MT5新增 (日本版)
|-
|LAUREL 25 CLUB-S TURBO Type X ||GC35||4速-FR||MT5DX新增 (日本版)
|-
|Leopard 3.0 Ultima||F31||4速-FR||MT5DX+累计至500000G就可在MT6获得
|-
!colspan=4|[[速霸陸汽車|Subaru]]
|-
|WRX STI||GVB||6速-4WD||MT5新增(日本版),MT5DX新增(國際版)
|-
|LEVORG 2.0GT-S ||VMG||6速-4WD||MT5新增 (日本版),MT5DX新增(國際版)
|-
|Subaru BRZ||ZC6||6速-FR||MT5新增,MT5DX(國際版)起可改裝車輛外型
|-
|Impreza WRX STI ||GRB||6速-4WD||MT3DX新增
|-
|Impreza Sedan WRX STI||GDB-F||6速-4WD||MT3新增
|-
|Impreza WRX STi||GDB-C||6速-4WD||選擇白色跟紅色為spec.c Limited
|-
|Impreza WRX STI Version VI||GC8||5速-4WD||選擇白色跟黃色為typeRA Sti VersionVI
|-
|Alcyone SVX Version L||CXD||4速-4WD||MT2新增
|-
|Legacy B4 2.0GT spec.B||BL5||5速-4WD||
|-
|LEGACY B4 2.5GT S Package||BM9||6速-4WD||MT4新增
|-
!colspan=4|[[豐田汽車公司|Toyota]]
|-
|Toyota 86||ZN6||6速-FR||MT5新增,MT5DX(國際版)起可改裝車輛外型。日本版是Toyota 86 GT
|-
|Sprinter Trueno GT APEX ||AE86||5速-FR||MT4新增
|-
|2000GT||MF10||5速-FR||MT4新增，MT5可直接選取
|-
|CELICA SUPRA ||MA61L||5速-FR||MT4新增
|-
|CROWN ATHLETE||GRS204||6速-FR||MT5新增
|-
|Supra RZ||JZA80||6速-FR||
|-
|Supra 2.5GT Twin Turbo R||JZA70||5速-FR||MT2新增
|-
|MR2 GT-S||SW20||5速-MR||
|-
|Chaser Tourer V||JZX100||5速-FR||
|-
|MARKII TOURER V||JZX100||5速-FR||
|-
|ARISTO V300 VERTEX EDITION ||JZS161||4速-FR||MT3新增，有隱藏特殊色
|-
|Celsior||UCF10||4速-FR||隱藏車輛，MT3可直接選取，MT3DX增加隱藏特殊色
|-
|SOARER 2.5GT TWINTURBO||JZZ30||5速-FR||MT5新增 (日本版)
|-
!colspan=4|[[Porsche|Porsche]]
|-
|911 Turbo S||930||5速-RR||MT6新增
|-
|911 Turbo 3.6||964||5速-RR||MT6新增，也是游戏中"黑鸟"使用的车辆
|-
|718 Caymen S||||6速-MR||MT6新增
|-
|911 Turbo S||991||6速-4WD||MT6新增
|-
|928 GT|| ||5速-FR||日本版MT6(后期)新增
|-
|}

===移除的车辆===
{| class="wikitable" | width=100%
!width=20%|車種名稱!!width=10%|車型代號!!width=10%|驅動型式!!width=50%|備註!!width=10%|移除
|-
!colspan=5|{{tsl|en|Ruf Automobile|德國RUF汽車公司|RUF}}
|-
|RT-35|| ||7速-RR||MT5新增(日本版),MT5DX新增(國際版)。||MT6
|-
|RGT||　||6速-RR||MT4新增||MT6
|-
|RK Coupe||　||6速-MR||MT4新增||MT6
|-
|RCT||　||6速-RR||MT5新增(日本版),MT5DX新增(國際版),不能改裝車輛外型||MT6
|-
|CTR||　||5速-RR||MT4新增||MT6
|-
!colspan=5|{{link-en|Gemballa|Gemballa}}
|-
|Avalanche|| ||6速-RR||MT3新增||MT4
|-
|3.8RS|| ||5速-RR||MT1新增||MT4
|-
|RSR|| ||5速-RR||MT1新增||MT4
|-
|}

===隐藏车辆===
{| class="wikitable" | width=100%
!width=20%|品牌!!width=20%|車種名稱!!width=10%|車型代號!!width=10%|驅動型式!!width=40%|備註
|-
|[[三菱汽車工業有限公司|Mitsubishi]]||PAJERO EVOLUTION||V55W||5速-4WD||MT4隐藏车辆
|-
|[[豐田汽車公司|Toyota]]||Hiace Wagon||KZH100G||4速-FR||MT2隐藏车辆
|-
|[[豐田汽車公司|Toyota]]||Hiace Wagon(高脚式)||KZH100G||4速-FR||MT4隐藏车辆
|-
|[[豐田汽車公司|Toyota]]||Hiace Van||H200||5速-FR||MT5DX(日本版)与MT6(国际版)隐藏车辆
|-
|[[豐田汽車公司|Toyota]]||COROLLA SEDAN G||NZE121||5速-4WD||MT2隐藏车辆
|-
|[[速霸陸汽車|Subaru]]||R2||RC2||5速-4WD||MT3隐藏车辆
|-
|[[日产|Nissan]]||GTR Spec V||R35||6速-4WD||MT3DX+隐藏车辆,不能改装车辆外形
|-
|[[日产|Nissan]]||GTR NISMO||R35||6速-4WD||MT5DX+隐藏车辆
|-
|[[日产|Nissan]]||Fairlady Z NISMO||Z34||6速-FR||MT5DX隐藏车辆
|-
|}

===只在故事模式出现的车辆===
{| class="wikitable" | width=100%
!width=20%|品牌!!width=20%|車種名稱!!width=10%|車型代號!!width=10%|驅動型式
|-
|[[本田技研工業|Honda]]||INTEGRA TYPE-R||DC2||4WD-5速
|-
|}

==灣岸Mid-Night Maximum Tune BGM==

=== 灣岸Mid-Night Maximum Tune/灣岸Mid-Night Maximum Tune 2 ===
#Overdrive Neurotransmitters
#Maximum Acceleration
#Stream Of Tears (More Tranced Remix)
#Feel the Passion
#Upbeat Gas Junkie
#Fun-Loving Spirit
#Speed Fanatic
#Driver's Delight
#Decoration For The Demented
#Ghost in the Resonance
#Stream Of Tears
#Total Terror
#Smoldery Guest
#Atheist On The Highway
#This is My Destiny
#Unlawful Temptation
#Acid Runner
#Nothing Lives Forever
#Destination Blackout
#Blue Blazes
#Another Dimension
#Holy Land Anthem

=== 灣岸Mid-Night Maximum Tune 3/3DX/3DX+ ===
#Stay where you are
#Loop of Fortune
#Acid Runner <sup>(remix 2010)</sup>
#Feel the Passion <sup>(remix 2010)</sup>
#Enjoy The Process
#Inexhaustible Energy
#In Your Dream
#Get Down to the Drive
#Top-Flight Mechanics
#Wanna Try One Last Time
#Get you Cornered
#Love to Rise in the Summer Morning
#Evil Association
#Supreme Folly
#Control Your Body
#Shrewd Critic
#Cause You're Different
#Feel the Moment
#Black Pressure
#Phantom of Blue

===10 Outrun===
#Nip And Tuck Race
#Highway Obsession
#Adrenaline Blowouts The Fear
#Just Flat Out
#Midnight Sanctuary

=== 灣岸Mid-Night Maximum Tune 4 ===
# The Final Count Down
# Driving Energy
# Pleasures of Speed
# Nostalgia
# No Turning Back
# Drifting into You
# Glory Days
# Never Throw Away
# Highway Discipline
# Feel a Thrill
# Dark Side Style
# Control Your Music
# Re-Birth
# Madly Driving
# Live with You
# Black Zone
# Taillight

===灣岸Mid-Night Maximum Tune 5/5DX/5DX+===
# Drive Me Crazy
# Still Alive
# I Will Follow You
# High-speed Monster
# Fascination
# Let it Shine
# Risky Guy
# The Race is On
# Avatar of Speed
# Daystar
# Inorganic Soul
# Tonight
# Dispatcher
# Fallen Angel
# Lightning Dance
# Give Up or Keep Trying Maxi5

===灣岸Mid-Night Maximum Tune 6===
# Burning Away
# New Generation
# Move On
# Maximum Synergy
# Driving Instinct
# Black Phoenix
# I'm Here for You
# Love&Gold
# Endless Run
# The Time is Over
# Silver&Gold
# Sunriser
# Groove of Groop
# Break it Down
# Beatific Smile
# Sky Beauty
# Love My Own Life
# Glare
# Don't Stop
# WANGAN-MAXI REMIX Vol.1
# WANGAN-MAXI REMIX Vol.2

=== 灣岸Mid-Night R ===
#Rival's Theme 1
#Rival's Theme 2
#Hiramoto's Theme
#Masaki's Theme
#Kei's Theme
#R200CLUB's Theme
#Kuroki's Theme
#Eiji's Theme
#Kijima's Theme
#Reina's Theme
#BlackBird's Theme
#Akio's Theme

== 術語 ==
''注意：以下术语可能会因地区的不同而不同。''
*隱藏車：
取得方式可分為三種，第一種需要選擇指定車輛再透過輸入指定編號而取得。第二種需要選擇指定車輛再透過轉換指定顏色而取得。第三種需要透過灣岸终点站的刮刮，刮中取得。

*TA：
指TIME ATTACK，也就是時間競速的意思。

*車檢：
當車卡壽命到一定極限(遊玩60次)時則必須要再買一張車卡以延續車卡資料，這就是車檢動作。

灣岸4中該功能删除，修改成每一輛車子遊玩60次可以獲得新的車輛顏色。

四代共20色，五代再新增至30色。

5DX新增至40色(部份車種代檢證)

在6代从游玩60次增加至100次才可以获得新的车辆颜色。

*IR：
全名"I"nternet "R"anking，即為"網路排行榜"，把計時模式跑完之後給定的密碼登入之後即可和全世界的玩家比較成績。四代起變更為每日凌晨伺服器自動更新。

*夾車：
兩台車或以上有推擠的動作，狹義稱為「'''夾車'''」，一般來說夾車都有置對方於死地的能力，例如推撞對方令對方與貨車或路壆相撞。

*閘車：
一台車橫向地阻塞另一台車前進。

*炒車：
行駛中有任何的失誤，都能稱為「炒車」。

*刷：
意指更新時間記錄。

*Tokyo先生：
直至MT3推出為止，在海外版本中，雖然不能直接選擇Gemballa的車輛，但相關車卡仍可在海外版機台上使用。當中有一較有名的車卡為保時捷的名為「Tokyo」，而「'''Tokyo先生'''」則為使用該複製車卡的玩家的辱名。

*後車加速(後追)與參戰人數固定開/關：
為因應後車的劣勢，公平起見與人對戰中會有後車加速的設定，意即為越落後的車加速力道越高，而要取消此設定可在賽道資料畫面下踩住煞車，但要全體的玩家都踩住，而MT3在對戰方面也有加了新要素，就是參站人數固定的開關，初始設定是開放其他玩家繼續亂入對戰，若要取消此設定則在賽道資料畫面下按住亂入切換鍵，與取消後車加速一樣須由全體玩家按住。

*假化身紀錄：
化身模式中，每位玩家的化身是以該玩家進行該跑道最新一次跑完的紀錄（不論輸贏，只要跑完都算），某些玩家會利用這個特性，在某一條跑道放水或是刻意不打保持原設定路線，來製造『假化身紀錄』，其目的是當該玩家擁有第二輛車，或是有其他認識的玩家可以利用『假化身紀錄』來互相重複打復仇戰，來穩賺1.5倍的化身經驗值加速化身改裝的進度。

*電腦化身：
化身模式中，有數個特定ID的化身是遊戲機中設定的化身，等級均為Super Hard，所有跑道都是遊戲機內定的原設定路線，會逐漸放慢速度，基本上只要不亂撞穩穩地開都一定能夠獲勝。

*BANAPASSPORT卡：

BANAPASSPORT卡片與SEGA AIME卡片系統共通.BANAPASSPORT卡可放100台車(MT4-MT5DX+)。

日本手機可當卡片使用.卡片還有像鑰匙圈的款式。

在6代可放的车辆从100辆增加至200
辆。

滿200台即無法新增車輛，但可以删除车辆(必须登入或注册湾岸应用程序才可删除)。

一個帳號可登錄3張BANAPASSPORT卡片。

目前仍無將卡片解除後再次登錄的功能，未來未知。

FaceBook的社團當中，有些灣岸的卡片買賣的社團，其中有些商品，賣家會註明(或是不會註明)已經解註冊，

這表示此張卡片已經由該賣家(抑或是前任擁有者或是前前任......)從官網刪除了曾經登錄該商品卡號的帳號，

若欲購買此類商品者請三思，只要遺失或是被盜取，是無法從官網以繼承的方式取回的。

==外部連結==
*[http://bandainamcoent.co.jp/am/vg/wanganmaxi/ Maximum Tune 官方網站] {{Wayback|url=http://bandainamcoent.co.jp/am/vg/wanganmaxi/ |date=20160803114939 }}
*[http://bandainamcoent.co.jp/am/vg/wanganmaxi2/ Maximum Tune 2 官方網站] {{Wayback|url=http://bandainamcoent.co.jp/am/vg/wanganmaxi2/ |date=20160803114943 }}
*[http://www.bandainamcogames.co.jp/am/english/aa/wanganmaxi3/ Maximum Tune 3 官方網站] {{Wayback|url=http://www.bandainamcogames.co.jp/am/english/aa/wanganmaxi3/ |date=20090811031501 }}
*[http://www.bandainamcogames.co.jp/am/english/aa/wanganmaxi3dx/ Maximum Tune 3DX 官方網站] {{Wayback|url=http://www.bandainamcogames.co.jp/am/english/aa/wanganmaxi3dx/ |date=20090607223140 }}
*[http://www.bandainamcogames.co.jp/am/english/aa/wanganmaxi3dx/ranking/ Maximum Tune 3DX 官方線上排行榜] {{Wayback|url=http://www.bandainamcogames.co.jp/am/english/aa/wanganmaxi3dx/ranking/ |date=20090806173904 }}
*[http://www.bandainamcogames.co.jp/am/english/aa/wanganmaxi3dxplus/ Maximum Tune 3DX Plus 官方網站] {{Wayback|url=http://www.bandainamcogames.co.jp/am/english/aa/wanganmaxi3dxplus/ |date=20100531061440 }}
*[http://wanganmaxi-official.com/wanganmaxi4/ Maximum Tune 4 官方網站] {{Wayback|url=http://wanganmaxi-official.com/wanganmaxi4/ |date=20110226001835 }}